# generated using pymatgen
data_C
_symmetry_space_group_name_H-M   'P 1'
_cell_length_a   80.00000000
_cell_length_b   80.00000000
_cell_length_c   4.26000000
_cell_angle_alpha   90.00000000
_cell_angle_beta   90.00000000
_cell_angle_gamma   90.00000000
_symmetry_Int_Tables_number   1
_chemical_formula_structural   C
_chemical_formula_sum   C100
_cell_volume   27264.00000000
_cell_formula_units_Z   100
loop_
 _symmetry_equiv_pos_site_id
 _symmetry_equiv_pos_as_xyz
  1  'x, y, z'
loop_
 _atom_site_type_symbol
 _atom_site_label
 _atom_site_symmetry_multiplicity
 _atom_site_fract_x
 _atom_site_fract_y
 _atom_site_fract_z
 _atom_site_occupancy
  C  C0  1  0.62232625  0.50000000  0.07042254  1
  C  C1  1  0.62136125  0.51533125  0.23708920  1
  C  C2  1  0.61848250  0.53042125  0.07042254  1
  C  C3  1  0.61373625  0.54503125  0.23708920  1
  C  C4  1  0.60719500  0.55893125  0.07042254  1
  C  C5  1  0.59896375  0.57190125  0.23708920  1
  C  C6  1  0.58917250  0.58373750  0.07042254  1
  C  C7  1  0.57797375  0.59425375  0.23708920  1
  C  C8  1  0.56554500  0.60328375  0.07042254  1
  C  C9  1  0.55208375  0.61068375  0.23708920  1
  C  C10  1  0.53780125  0.61633875  0.07042254  1
  C  C11  1  0.52292125  0.62015875  0.23708920  1
  C  C12  1  0.50768125  0.62208500  0.07042254  1
  C  C13  1  0.49231875  0.62208500  0.23708920  1
  C  C14  1  0.47707875  0.62015875  0.07042254  1
  C  C15  1  0.46219875  0.61633875  0.23708920  1
  C  C16  1  0.44791625  0.61068375  0.07042254  1
  C  C17  1  0.43445500  0.60328375  0.23708920  1
  C  C18  1  0.42202625  0.59425375  0.07042254  1
  C  C19  1  0.41082750  0.58373750  0.23708920  1
  C  C20  1  0.40103625  0.57190125  0.07042254  1
  C  C21  1  0.39280500  0.55893125  0.23708920  1
  C  C22  1  0.38626375  0.54503125  0.07042254  1
  C  C23  1  0.38151750  0.53042125  0.23708920  1
  C  C24  1  0.37863875  0.51533125  0.07042254  1
  C  C25  1  0.37767375  0.50000000  0.23708920  1
  C  C26  1  0.37863875  0.48466875  0.07042254  1
  C  C27  1  0.38151750  0.46957875  0.23708920  1
  C  C28  1  0.38626375  0.45496875  0.07042254  1
  C  C29  1  0.39280500  0.44106875  0.23708920  1
  C  C30  1  0.40103625  0.42809875  0.07042254  1
  C  C31  1  0.41082750  0.41626250  0.23708920  1
  C  C32  1  0.42202625  0.40574625  0.07042254  1
  C  C33  1  0.43445500  0.39671625  0.23708920  1
  C  C34  1  0.44791625  0.38931625  0.07042254  1
  C  C35  1  0.46219875  0.38366125  0.23708920  1
  C  C36  1  0.47707875  0.37984125  0.07042254  1
  C  C37  1  0.49231875  0.37791500  0.23708920  1
  C  C38  1  0.50768125  0.37791500  0.07042254  1
  C  C39  1  0.52292125  0.37984125  0.23708920  1
  C  C40  1  0.53780125  0.38366125  0.07042254  1
  C  C41  1  0.55208375  0.38931625  0.23708920  1
  C  C42  1  0.56554500  0.39671625  0.07042254  1
  C  C43  1  0.57797375  0.40574625  0.23708920  1
  C  C44  1  0.58917250  0.41626250  0.07042254  1
  C  C45  1  0.59896375  0.42809875  0.23708920  1
  C  C46  1  0.60719500  0.44106875  0.07042254  1
  C  C47  1  0.61373625  0.45496875  0.23708920  1
  C  C48  1  0.61848250  0.46957875  0.07042254  1
  C  C49  1  0.62136125  0.48466875  0.23708920  1
  C  C50  1  0.62136125  0.51533125  0.57042254  1
  C  C51  1  0.61848250  0.53042125  0.73708920  1
  C  C52  1  0.61373625  0.54503125  0.57042254  1
  C  C53  1  0.60719500  0.55893125  0.73708920  1
  C  C54  1  0.59896375  0.57190125  0.57042254  1
  C  C55  1  0.58917250  0.58373750  0.73708920  1
  C  C56  1  0.57797375  0.59425375  0.57042254  1
  C  C57  1  0.56554500  0.60328375  0.73708920  1
  C  C58  1  0.55208375  0.61068375  0.57042254  1
  C  C59  1  0.53780125  0.61633875  0.73708920  1
  C  C60  1  0.52292125  0.62015875  0.57042254  1
  C  C61  1  0.50768125  0.62208500  0.73708920  1
  C  C62  1  0.49231875  0.62208500  0.57042254  1
  C  C63  1  0.47707875  0.62015875  0.73708920  1
  C  C64  1  0.46219875  0.61633875  0.57042254  1
  C  C65  1  0.44791625  0.61068375  0.73708920  1
  C  C66  1  0.43445500  0.60328375  0.57042254  1
  C  C67  1  0.42202625  0.59425375  0.73708920  1
  C  C68  1  0.41082750  0.58373750  0.57042254  1
  C  C69  1  0.40103625  0.57190125  0.73708920  1
  C  C70  1  0.39280500  0.55893125  0.57042254  1
  C  C71  1  0.38626375  0.54503125  0.73708920  1
  C  C72  1  0.38151750  0.53042125  0.57042254  1
  C  C73  1  0.37863875  0.51533125  0.73708920  1
  C  C74  1  0.37767375  0.50000000  0.57042254  1
  C  C75  1  0.37863875  0.48466875  0.73708920  1
  C  C76  1  0.38151750  0.46957875  0.57042254  1
  C  C77  1  0.38626375  0.45496875  0.73708920  1
  C  C78  1  0.39280500  0.44106875  0.57042254  1
  C  C79  1  0.40103625  0.42809875  0.73708920  1
  C  C80  1  0.41082750  0.41626250  0.57042254  1
  C  C81  1  0.42202625  0.40574625  0.73708920  1
  C  C82  1  0.43445500  0.39671625  0.57042254  1
  C  C83  1  0.44791625  0.38931625  0.73708920  1
  C  C84  1  0.46219875  0.38366125  0.57042254  1
  C  C85  1  0.47707875  0.37984125  0.73708920  1
  C  C86  1  0.49231875  0.37791500  0.57042254  1
  C  C87  1  0.50768125  0.37791500  0.73708920  1
  C  C88  1  0.52292125  0.37984125  0.57042254  1
  C  C89  1  0.53780125  0.38366125  0.73708920  1
  C  C90  1  0.55208375  0.38931625  0.57042254  1
  C  C91  1  0.56554500  0.39671625  0.73708920  1
  C  C92  1  0.57797375  0.40574625  0.57042254  1
  C  C93  1  0.58917250  0.41626250  0.73708920  1
  C  C94  1  0.59896375  0.42809875  0.57042254  1
  C  C95  1  0.60719500  0.44106875  0.73708920  1
  C  C96  1  0.61373625  0.45496875  0.57042254  1
  C  C97  1  0.61848250  0.46957875  0.73708920  1
  C  C98  1  0.62136125  0.48466875  0.57042254  1
  C  C99  1  0.62232625  0.50000000  0.73708920  1
